STAAD SPACE
SET NL 500
START JOB INFORMATION
ENGINEER DATE 20-OCT-24
JOB NAME HPP
JOB CLIENT ELTEC-SWA
JOB REV 0
JOB PART MAIN BUILDING
ENGINEER NAME MSI
CHECKER NAME MSB
CHECKER DATE 24-OCT-24
END JOB INFORMATION
INPUT WIDTH 79
UNIT METER KN
JOINT COORDINATES
1 0 0 0; 2 0 -2.8 0; 3 0 0 7; 4 0 -1.7 7; 5 6 0 0; 6 6 -1.7 0; 7 6 0 7;
8 6 -1.7 7; 9 11.9 0 0; 10 11.9 -1.7 0; 11 11.9 0 7; 12 11.9 -1.7 7;
13 16.2 0 0; 14 16.2 -1.7 0; 15 16.2 0 7; 16 16.2 -1.7 7; 17 22.3 0 0;
18 22.3 -1.7 0; 19 22.3 0 7; 20 22.3 -1.7 7; 21 26.7 0 0; 22 26.7 -1.7 0;
23 26.7 0 7; 24 26.7 -1.7 7; 25 11.5 -1.7 0; 26 11.5 -1.7 0.583;
27 11.9 -1.7 0.583; 28 11 -1.7 0; 29 11 -1.7 0.583; 30 10.6 -1.7 0;
31 10.6 -1.7 0.583; 32 10.2 -1.7 0; 33 10.2 -1.7 0.583; 34 9.78 -1.7 0;
35 9.78 -1.7 0.583; 36 9.36 -1.7 0; 37 9.36 -1.7 0.583; 38 8.94 -1.7 0;
39 8.94 -1.7 0.583; 40 8.52 -1.7 0; 41 8.52 -1.7 0.583; 42 8.1 -1.7 0;
43 8.1 -1.7 0.583; 44 7.68 -1.7 0; 45 7.68 -1.7 0.583; 46 7.26 -1.7 0;
47 7.26 -1.7 0.583; 48 6.84 -1.7 0; 49 6.84 -1.7 0.583; 50 6.42 -1.7 0;
51 6.42 -1.7 0.583; 52 6 -1.7 0.583; 53 11.5 -1.7 1.17; 54 11.9 -1.7 1.17;
55 11 -1.7 1.17; 56 10.6 -1.7 1.17; 57 10.2 -1.7 1.17; 58 9.78 -1.7 1.17;
59 9.36 -1.7 1.17; 60 8.94 -1.7 1.17; 61 8.52 -1.7 1.17; 62 8.1 -1.7 1.17;
63 7.68 -1.7 1.17; 64 7.26 -1.7 1.17; 65 6.84 -1.7 1.17; 66 6.42 -1.7 1.17;
67 6 -1.7 1.17; 68 11.5 -1.7 1.75; 69 11.9 -1.7 1.75; 70 11 -1.7 1.75;
71 10.6 -1.7 1.75; 72 10.2 -1.7 1.75; 73 9.78 -1.7 1.75; 74 9.36 -1.7 1.75;
75 8.94 -1.7 1.75; 76 8.52 -1.7 1.75; 77 8.1 -1.7 1.75; 78 7.68 -1.7 1.75;
79 7.26 -1.7 1.75; 80 6.84 -1.7 1.75; 81 6.42 -1.7 1.75; 82 6 -1.7 1.75;
83 11.5 -1.7 2.33; 84 11.9 -1.7 2.33; 85 11 -1.7 2.33; 86 10.6 -1.7 2.33;
# ... 273 like lines cut
MEMBER INCIDENCES
1 1 739; 2 3 610; 3 5 807; 4 7 650; 5 9 849; 6 11 692; 7 13 14; 8 15 16;
9 17 18; 10 19 20; 11 21 22; 12 23 24; 15 21 23; 16 17 19; 17 9 765; 18 5 752;
20 3 580; 21 7 593; 22 11 860; 23 580 581; 24 581 582; 25 582 583; 26 583 584;
27 584 585; 28 585 586; 29 586 587; 30 587 588; 31 588 589; 32 589 590;
33 590 591; 34 591 592; 35 592 7; 36 593 594; 37 594 595; 38 595 596;
39 596 597; 40 597 598; 41 598 599; 42 599 600; 43 600 601; 44 601 602;
45 602 603; 46 603 604; 47 604 605; 48 605 11; 49 606 4; 50 608 606;
51 610 608; 52 648 8; 53 649 648; 54 650 649; 55 690 12; 56 691 690;
57 692 691; 69 737 1091; 70 738 737; 71 739 738; 72 740 1; 73 741 740;
74 742 741; 75 743 742; 76 744 743; 77 745 744; 78 746 745; 79 747 746;
80 748 747; 81 749 748; 82 750 749; 83 751 750; 84 752 751; 85 753 5;
86 754 753; 87 755 754; 88 756 755; 89 757 756; 90 758 757; 91 759 758;
92 760 759; 93 761 760; 94 762 761; 95 763 762; 96 764 763; 97 765 764;
98 805 6; 99 806 805; 100 807 806; 101 847 10; 102 848 847; 103 849 848;
104 850 9; 105 851 850; 106 852 851; 107 853 852; 108 854 853; 109 855 854;
110 856 855; 111 857 856; 112 858 857; 113 859 858; 114 860 859; 115 17 21;
116 13 17; 117 19 23; 118 15 19; 119 1 1028; 120 3 1042; 121 5 950; 122 7 951;
123 9 952; 124 11 953; 125 13 900; 126 15 901; 127 17 902; 128 19 903;
129 21 904; 130 23 905; 964 894 906; 965 895 907; 966 896 908; 967 897 909;
968 898 910; 969 899 911; 970 900 912; 971 901 913; 972 902 914; 973 903 915;
# ... 45 like lines cut
ELEMENT INCIDENCES SHELL
132 539 541 514 512; 133 512 514 515 513; 134 513 515 517 516;
135 516 517 519 518; 136 518 519 521 520; 137 520 521 523 522;
138 522 523 525 524; 139 524 525 527 526; 140 526 527 529 528;
141 528 529 531 530; 142 530 531 533 532; 143 532 533 535 534;
144 534 535 537 536; 145 536 537 543 542; 146 542 543 545 544;
147 452 538 539 453; 148 453 539 512 2; 149 2 512 513 242; 150 242 513 516 256;
151 256 516 518 270; 152 270 518 520 284; 153 284 520 522 298;
154 298 522 524 312; 155 312 524 526 326; 156 326 526 528 340;
157 340 528 530 354; 158 354 530 532 368; 159 368 532 534 382;
160 382 534 536 4; 161 4 536 542 497; 162 497 542 544 511; 164 734 735 738 737;
165 735 736 739 738; 166 736 703 1 739; 168 731 732 735 734;
169 732 733 736 735; 170 733 702 703 736; 172 728 729 732 731;
173 729 730 733 732; 174 730 701 702 733; 176 725 726 729 728;
177 726 727 730 729; 178 727 700 701 730; 180 722 723 726 725;
181 723 724 727 726; 182 724 699 700 727; 184 719 720 723 722;
185 720 721 724 723; 186 721 698 699 724; 190 718 697 698 721;
194 715 696 697 718; 195 354 710 713 340; 196 710 711 714 713;
197 711 712 715 714; 198 712 695 696 715; 199 368 707 710 354;
200 707 708 711 710; 201 708 709 712 711; 202 709 694 695 712;
203 382 704 707 368; 204 704 705 708 707; 205 705 706 709 708;
# ... 273 like lines cut
*********************************************************************************
START GROUP DEFINITION
JOINT
*************************************************************************************
_F7 303
_F8 308
_F9 252
_F10 126
ELEMENT
*************************************************************************
_RAFT 132 TO 162 211 212 217 TO 228 233 TO 236 241 TO 252 257 TO 260 -
265 TO 276 281 TO 284 289 290 292 294 TO 296 298 TO 300 305 TO 308 -
313 TO 324 329 TO 332 337 TO 348 353 TO 356 361 TO 372 377 TO 380 -
385 TO 396 401 TO 404 409 TO 420 425 TO 428 433 TO 444 449 TO 452 -
457 TO 468 473 TO 476 481 TO 483 485 TO 487 490 TO 492 497 TO 500 -
505 TO 516 521 TO 524 529 TO 540 545 TO 548 553 TO 564 569 TO 572 -
577 TO 588 593 TO 596 601 TO 612 617 TO 620 625 TO 636 641 TO 644 -
649 TO 660 665 TO 668 673 TO 675 677 TO 679 681 TO 684 689 TO 692 -
697 TO 708 713 TO 716 721 TO 732 737 TO 740 745 TO 756 761 TO 764 -
769 TO 780 785 TO 788 793 TO 804 809 TO 812 817 TO 828 833 TO 836 -
841 TO 852 857 TO 860 865 TO 876 881 882 963 1259 TO 1268 1303 TO 1318 1425 -
1426 TO 1430
_WALL 164 TO 166 168 TO 170 172 TO 174 176 TO 178 180 TO 182 184 TO 186 190 -
194 TO 210 214 TO 216 229 TO 232 238 TO 240 253 TO 256 262 TO 264 -
277 TO 280 286 TO 288 301 TO 304 310 TO 312 325 TO 328 334 TO 336 -
349 TO 352 358 TO 360 373 TO 376 382 TO 384 397 TO 400 407 408 421 TO 424 -
431 432 445 TO 448 454 TO 456 469 TO 472 477 TO 480 493 TO 496 501 TO 504 -
517 TO 520 525 TO 528 541 TO 544 549 TO 552 565 TO 568 573 TO 576 -
589 TO 592 597 TO 600 613 TO 616 621 TO 624 637 TO 640 645 TO 648 -
661 TO 664 669 TO 672 685 TO 688 693 TO 696 709 TO 712 717 TO 720 -
733 TO 736 741 TO 744 757 TO 760 765 TO 768 781 TO 784 789 TO 792 -
805 TO 808 813 TO 816 829 TO 832 837 TO 840 853 TO 856 861 TO 864 -
877 TO 880 883 TO 930 1143 TO 1156 1158 1220 1222 TO 1226 1228 1230 1232 -
1234 1236 1238 1240 TO 1251 1253 1255 1256 1258 1402 TO 1404 1435 TO 1447
_PLATFORM 1121 TO 1141 1159 TO 1182 1406 TO 1408 1410 TO 1418
_STAIR 1196 TO 1210
_W250 229 TO 232 253 TO 256 277 TO 280 301 TO 304 325 TO 328 349 TO 352 373 -
374 TO 376 397 TO 400 421 TO 424 445 TO 448 469 TO 472 493 TO 496 517 TO 520 -
541 TO 544 549 TO 552 565 TO 568 573 TO 576 589 TO 592 597 TO 600 -
613 TO 616 621 TO 624 637 TO 640 645 TO 648 661 TO 664 669 TO 672 -
685 TO 688 693 TO 696 709 TO 712 717 TO 720 733 TO 736 741 TO 744 -
757 TO 760 765 TO 768 781 TO 784 789 TO 792 805 TO 808 813 TO 816 -
829 TO 832 837 TO 840 853 TO 856 861 TO 864 877 TO 880 883 TO 930 -
1402 TO 1404
_W300 164 TO 166 168 TO 170 172 TO 174 176 TO 178 180 TO 182 195 TO 210 214 -
215 TO 216 238 TO 240 262 TO 264 286 TO 288 310 TO 312 334 TO 336 501 TO 504 -
525 TO 528 1143 TO 1156 1158 1220 1222 TO 1226 1228 1236 1238 1240 TO 1246 -
1435 TO 1447
_W-F4 184 TO 186 190 194 TO 198 1230 1232 1234 1487 1489 1491 1492
_W-F1 358 TO 360 382 TO 384 407 408 431 432 454 TO 456 477 TO 480 -
1247 TO 1251 1253 1255 1256 1258 1481 TO 1484
MEMBER
*******************************************************************
*******************************************************************
_COLS 1 TO 12 49 TO 57 69 TO 71 98 TO 103 119 TO 130 1013 TO 1017 1019 1142 -
1157 1218 1270 1272 1295 1296 1434 1450
_PB-01 116 1269
_PB-02 118 1271
_PB-03 15
_PB-04 16 1302
_DUMMY 17 18 20 TO 48 72 TO 97 104 TO 114 1183 1184 1187 TO 1194 1405 1409
_CORBEL 1021 1027
_RB-01 1035 TO 1037
_RB-02 1039 TO 1041
_RB-03 1038 1326
_RB-04 1032 1321 1323
_RB-05 1029 1319 1325
_RB-06 1033 1034
_RB-07 1030 1031
_PB-01A 115
_PB-02A 117
_PB-05 16 1302
_RC 1 TO 12 15 16 49 TO 57 69 TO 71 98 TO 103 115 TO 130 1013 TO 1017 1019 -
1029 TO 1041 1142 1157 1218 1269 TO 1272 1295 1296 1302 1319 1321 1323 1325 -
1326 1419 TO 1424 1434 1448 TO 1458
_SHED_COL 964 TO 975 1007 1008
_SHED_BEAM 976 977 979 981 TO 1001 1009 TO 1012 1048 TO 1050 1053 TO 1062 -
1084 1327 TO 1333 1342 TO 1348 1356 TO 1362 1386 TO 1388 1393 TO 1395 1397
_PURLIN 1042 1043 1051 1052 1063 1066 TO 1069 1073 TO 1079 1085 TO 1088 1093 -
1094 TO 1096 1101 TO 1105 1108 1109 1111 1334 TO 1341 1349 TO 1355 -
1370 TO 1373 1378 TO 1381 1389 TO 1392 1396 1398 TO 1401
_C1-400X500 7 TO 12 125 TO 130 1270 1272 1295 1296
_C2-400X800 1 TO 6 49 TO 57 69 TO 71 98 TO 103 119 TO 124 1013 TO 1017 1019 -
1142 1157 1218 1434
_C3-300X300 1450
_GB-01 1419 TO 1424
_GB-02 1448 1453 TO 1458
_GB-03 1449 1451 1452
_PIPE_FLANGES 1459 TO 1474 1485 1486 1488 1490
END GROUP DEFINITION
*******************************************************************
*******************************************************************
ELEMENT PROPERTY
_RAFT THICKNESS 0.6
_W300 THICKNESS 0.3
_W250 THICKNESS 0.25
_W-F1 THICKNESS 1.4
_W-F4 THICKNESS 0.85
_PLATFORM THICKNESS 0.3
_STAIR THICKNESS 0.25
1167 TO 1174 1407 1411 1414 1417 THICKNESS 0.3
1159 TO 1166 1406 1410 1413 1416 THICKNESS 0.35
DEFINE MATERIAL START
ISOTROPIC CONCRETE
E 2.17185e+07
POISSON 0.17
DENSITY 23.5616
ALPHA 1e-05
DAMP 0.05
TYPE CONCRETE
STRENGTH FCU 27579
ISOTROPIC STEEL
E 2.05e+08
POISSON 0.3
DENSITY 76.8195
ALPHA 1.2e-05
DAMP 0.03
TYPE STEEL
STRENGTH FY 253200 FU 407800 RY 1.5 RT 1.2
ISOTROPIC STEEL_36_KSI
E 1.99947e+08
POISSON 0.3
DENSITY 76.8191
ALPHA 6.5e-06
DAMP 0.03
G 7.7221e+07
TYPE STEEL
STRENGTH FY 248210 FU 399894 RY 1.5 RT 1.2
END DEFINE MATERIAL
******************************************************************
MEMBER PROPERTY AMERICAN
_C1-400X500 PRIS YD 0.4 ZD 0.5
_C2-400X800 PRIS YD 0.4 ZD 0.8
_C3-300X300 PRIS YD 0.3 ZD 0.3
_GB-01 PRIS YD 0.6 ZD 0.35
_GB-02 PRIS YD 0.5 ZD 0.3
_GB-03 PRIS YD 0.5 ZD 0.3
_PB-01 PRIS YD 1.35 ZD 0.3
_PB-01A PRIS YD 0.6 ZD 0.3
_PB-02 PRIS YD 1.35 ZD 0.3
_PB-02A PRIS YD 0.6 ZD 0.3
_PB-03 PRIS YD 0.6 ZD 0.3
_PB-05 PRIS YD 1.35 ZD 0.3
_CORBEL PRIS YD 0.5 ZD 0.5
_RB-01 PRIS YD 0.5 ZD 0.25
_RB-02 PRIS YD 0.5 ZD 0.25
1038 1326 PRIS YD 0.5 ZD 0.25
1032 1321 1323 PRIS YD 0.6 ZD 0.3
1029 1319 1325 PRIS YD 0.6 ZD 0.3
_RB-06 PRIS YD 0.6 ZD 0.25
_RB-07 PRIS YD 0.6 ZD 0.25
17 18 20 TO 48 72 TO 97 104 TO 114 1183 1184 1187 TO 1194 1405 -
1409 PRIS YD 0.05 ZD 0.05
**************************************************************************
**************************************************************************
MEMBER PROPERTY 'EUROPE (EN 2023).DB3'
964 TO 977 979 981 TO 1001 1007 TO 1012 1048 TO 1050 1053 TO 1062 1084 1327 -
1328 TO 1333 1342 TO 1348 1356 TO 1362 1386 TO 1388 1393 TO 1395 -
1397 TABLE 'IPE' ST 'IPE 300'
MEMBER PROPERTY 'US COLD FORMED (AISI 2023).DB3'
1042 1043 1051 1052 1063 1066 TO 1069 1073 TO 1079 1085 TO 1088 1093 TO 1096 -
1101 TO 1105 1108 1109 1111 1334 TO 1341 1349 TO 1355 1370 TO 1373 -
1378 TO 1381 1389 TO 1392 1396 1398 TO 1400 -
1401 TABLE 'C WITH LIPS' ST '12CS3.5X105'
MEMBER PROPERTY
1459 TO 1474 1485 1486 1488 1490 PRIS YD 0.2 ZD 0.2
CONSTANTS
BETA 90 MEMB 964 TO 975 1007 1008 1464 1466 1467 1470 1486 1488
MATERIAL CONCRETE MEMB 1 TO 12 15 TO 18 20 TO 57 69 TO 130 132 TO 162 164 -
165 TO 166 168 TO 170 172 TO 174 176 TO 178 180 TO 182 184 TO 186 190 194 -
195 TO 212 214 TO 236 238 TO 260 262 TO 284 286 TO 290 292 294 TO 296 298 -
299 TO 308 310 TO 332 334 TO 356 358 TO 380 382 TO 404 407 TO 428 431 TO 452 -
454 TO 483 485 TO 487 490 TO 675 677 TO 679 681 TO 930 963 1013 TO 1017 -
1019 1021 1027 1029 TO 1041 1121 TO 1184 1187 TO 1194 1196 TO 1210 1218 -
1220 1222 TO 1226 1228 1230 1232 1234 1236 1238 1240 TO 1251 1253 1255 1256 -
1258 TO 1272 1295 1296 1302 TO 1319 1321 1323 1325 1326 1402 TO 1430 1434 -
1435 TO 1474 1481 TO 1492
MATERIAL STEEL_36_KSI MEMB 964 TO 977 979 981 TO 1001 1007 TO 1012 1042 1043 -
1048 TO 1063 1066 TO 1069 1073 TO 1079 1084 TO 1088 1093 TO 1096 -
1101 TO 1105 1108 1109 1111 1327 TO 1362 1370 TO 1373 1378 TO 1381 -
1386 TO 1401
**************************************************************
***************************************************************
MEMBER OFFSET
1029 TO 1041 1326 START LOCAL 0.2 -0.25 0
1030 1031 1033 TO 1041 1321 1325 1326 END LOCAL -0.2 -0.25 0
1042 1043 1051 1052 1063 1066 TO 1069 1073 TO 1079 1085 TO 1088 1093 TO 1096 -
1101 TO 1105 1108 1109 1111 1334 TO 1341 1349 TO 1355 1370 TO 1373 -
1378 TO 1381 1389 TO 1392 1396 1398 TO 1401 START LOCAL 0 0.15 0
1042 1043 1051 1052 1063 1066 TO 1069 1073 TO 1079 1085 TO 1088 1093 TO 1096 -
1101 TO 1105 1108 1109 1111 1334 TO 1341 1350 TO 1355 1370 TO 1373 -
1378 TO 1381 1389 TO 1392 1396 1398 TO 1401 END LOCAL 0 0.15 0
16 116 118 1269 1271 1302 START LOCAL 0.2 -0.6 0
16 116 118 1269 1271 1302 END LOCAL -0.2 -0.6 0
15 115 117 START LOCAL 0.2 -0.3 0
15 115 117 END LOCAL -0.25 -0.3 0
1319 1321 1323 1325 START LOCAL 0 -0.25 0
1029 1032 1319 1323 END LOCAL 0 -0.25 0
SUPPORTS
14 16 18 20 22 24 1118 1121 PINNED
_RAFT PLATE MAT DIRECT Y SUBGRADE 15000 COMPRESSION
**************************************************************************
MEMBER RELEASE
964 TO 975 1007 1008 START MY MZ
1043 1052 1068 1074 1076 TO 1078 1085 TO 1087 1093 TO 1095 1101 TO 1103 1335 -
1338 TO 1340 1350 1352 TO 1354 1371 1378 TO 1380 1390 1396 1398 -
1399 START MY MZ
1042 1051 1067 1073 1076 1077 1085 1086 1093 1094 1101 1102 1334 1338 1339 -
1349 1352 1353 1370 1378 1379 1389 1396 1398 END MY MZ
MEMBER CRACKED
1 TO 12 49 TO 57 69 TO 71 98 TO 103 119 TO 130 1013 TO 1017 1019 1142 1157 -
1218 1270 1272 1295 1296 1434 REDUCTION RIX 0.01 RIY 0.7 RIZ 0.7
1 15 16 115 TO 118 1029 TO 1041 1269 1271 1302 1319 1321 1323 1325 -
1326 REDUCTION RIX 0.01 RIY 0.35 RIZ 0.35
DEFINE REFERENCE LOADS
LOAD R1 LOADTYPE Mass  TITLE EQ-LOAD
SELFWEIGHT Y -1 LIST 1 TO 12 15 TO 18 20 TO 57 69 TO 130 132 TO 162 -
164 TO 166 168 TO 170 172 TO 174 176 TO 178 180 TO 182 184 TO 186 190 194 -
195 TO 212 214 TO 236 238 TO 260 262 TO 284 286 TO 290 292 294 TO 296 298 -
299 TO 308 310 TO 332 334 TO 356 358 TO 380 382 TO 404 407 TO 428 431 TO 452 -
454 TO 483 485 TO 487 490 TO 675 677 TO 679 681 TO 930 963 TO 977 979 981 -
982 TO 1001 1007 TO 1017 1019 1021 1027 1029 TO 1043 1048 TO 1063 -
1066 TO 1069 1073 TO 1079 1084 TO 1088 1093 TO 1096 1101 TO 1105 1108 1109 -
1111 1121 TO 1184 1187 TO 1194 1196 TO 1210 1218 1220 1222 TO 1226 1228 -
1230 1232 1234 1236 1238 1240 TO 1251 1253 1255 1256 1258 TO 1272 1295 1296 -
1302 TO 1319 1321 1323 1325 TO 1362 1370 TO 1373 1378 TO 1381 1386 TO 1418 -
1434 TO 1444
MEMBER LOAD
17 18 20 TO 48 72 TO 97 104 TO 114 1183 1184 1187 TO 1194 1405 -
1409 UNI GY -27.6
1029 TO 1034 1319 1321 1323 1325 UNI GY -12
15 16 115 TO 118 1269 1271 UNI GY -18
MEMBER LOAD
1042 1043 1051 1052 1063 1066 TO 1069 1073 TO 1079 1085 TO 1088 1093 TO 1096 -
1101 TO 1105 1108 1109 1111 1334 TO 1341 1349 TO 1355 1370 TO 1373 -
1378 TO 1381 1389 TO 1392 1396 1398 TO 1401 UNI GY -0.2
**********************************************************************************
END DEFINE REFERENCE LOADS
****************************************************************
DEFINE IBC 2015
SS 0.115 S1 0.034 I 1.25 RX 4 RZ 4 SCLASS 2 CTX 0.044 CTZ 0.044 PX 0.255 PZ -
0.255 TL 6 FA 1 FV 1 XX 0.9 XZ 0.9
REFERENCE LOAD Y
R1 1.0 
****************************************************************************
DEFINE WIND LOAD
TYPE 1 WWARD_XZ
<! STAAD PRO GENERATED DATA DO NOT MODIFY !!!
ASCE-7-2016:PARAMS 0.000 0.000 0.000 0 0 0 0 0 0.000 0 0.000 0.000 0.000 -
0.000 0 0 0.000 0 0.000 0 0.000 0 0.000 0.000 0 0 0 0 0 0 0.000 0.000 0.000 -
0.000 337.000 0 348 353 0 356.000 361.000 0.000
!> END GENERATED DATA BLOCK
INT 1.164 HEIG  10
TYPE 2 LEEWARD_X
<! STAAD PRO GENERATED DATA DO NOT MODIFY !!!
ASCE-7-2016:PARAMS 0.000 0.000 0.000 0 0 0 0 0 0.000 0 0.000 0.000 0.000 -
0.000 0 0 0.000 0 0.000 0 0.000 0 0.000 0.000 0 0 0 0 0 0 0.000 0.000 0.000 -
0.000 -3632166213956419926884352.000 -2147483648 -2147483648 -2147483648 0 -
0.000 0.000 0.000
!> END GENERATED DATA BLOCK
INT 0.437 HEIG  10
TYPE 3 LEEWARD_Z
<! STAAD PRO GENERATED DATA DO NOT MODIFY !!!
ASCE-7-2016:PARAMS 0.000 0.000 0.000 0 0 0 0 0 0.000 0 0.000 0.000 0.000 -
0.000 0 0 0.000 0 0.000 0 0.000 0 0.000 0.000 0 0 0 0 0 0 0.000 0.000 0.000 -
0.000 0.000 -2147483648 0 -2147483648 -2147483648 0.000 0.000 0.000
!> END GENERATED DATA BLOCK
INT 0.728 HEIG  10
*****************************************************************
LOAD 13 LOADTYPE Seismic-H  TITLE EX
IBC LOAD X 1 ACC 1.05
PERFORM ANALYSIS
CHANGE
******************************************************************
LOAD 14 LOADTYPE Seismic-H  TITLE EZ
IBC LOAD Z 1 ACC 1.05
PERFORM ANALYSIS
CHANGE
******************************************************************
LOAD 1 LOADTYPE Dead  TITLE D
SELFWEIGHT Y -1 LIST 1 TO 12 15 TO 18 20 TO 57 69 TO 130 132 TO 162 -
164 TO 166 168 TO 170 172 TO 174 176 TO 178 180 TO 182 184 TO 186 190 194 -
195 TO 212 214 TO 236 238 TO 260 262 TO 284 286 TO 290 292 294 TO 296 298 -
299 TO 308 310 TO 332 334 TO 356 358 TO 380 382 TO 404 407 TO 428 431 TO 452 -
454 TO 483 485 TO 487 490 TO 675 677 TO 679 681 TO 930 963 TO 977 979 981 -
982 TO 1001 1007 TO 1017 1019 1021 1027 1029 TO 1043 1048 TO 1063 -
1066 TO 1069 1073 TO 1079 1084 TO 1088 1093 TO 1096 1101 TO 1105 1108 1109 -
1111 1121 TO 1184 1187 TO 1194 1196 TO 1210 1218 1220 1222 TO 1226 1228 -
1230 1232 1234 1236 1238 1240 TO 1251 1253 1255 1256 1258 TO 1272 1295 1296 -
1302 TO 1319 1321 1323 1325 TO 1362 1370 TO 1373 1378 TO 1381 1386 TO 1418 -
1434 TO 1444
MEMBER LOAD
17 18 20 TO 48 72 TO 97 104 TO 114 1183 1184 1187 TO 1194 1405 -
1409 UNI GY -27.6
1029 TO 1034 1319 1321 1323 1325 UNI GY -12
15 16 115 TO 118 1269 1271 UNI GY -18
ELEMENT LOAD
132 TO 162 211 212 233 TO 236 257 TO 260 281 TO 284 305 TO 308 329 TO 332 -
353 TO 356 377 TO 380 401 TO 404 425 TO 428 449 TO 452 473 TO 476 -
497 TO 500 521 TO 524 545 TO 548 569 TO 572 593 TO 596 617 TO 620 -
641 TO 644 665 TO 668 689 TO 692 713 TO 716 737 TO 740 761 TO 764 -
785 TO 788 809 TO 812 833 TO 836 857 TO 860 881 882 963 1303 1304 1317 -
1318 PR GY -28
MEMBER LOAD
1042 1043 1051 1052 1063 1066 TO 1069 1073 TO 1079 1085 TO 1088 1093 TO 1096 -
1101 TO 1105 1108 1109 1111 1334 TO 1341 1349 TO 1355 1370 TO 1373 -
1378 TO 1381 1389 TO 1392 1396 1398 TO 1401 UNI GY -0.2
ELEMENT LOAD
318 319 342 343 533 TO 535 557 TO 559 581 TO 583 605 TO 607 629 TO 631 653 -
654 TO 655 PR -20
**********************************************************************************
**********************************************************************************
LOAD 2 LOADTYPE Live  TITLE L
ELEMENT LOAD
132 TO 162 211 212 217 TO 228 233 TO 236 241 TO 252 257 TO 260 265 TO 276 -
281 TO 284 289 290 292 294 TO 296 298 TO 300 305 TO 308 313 TO 324 -
329 TO 332 337 TO 348 353 TO 356 361 TO 372 377 TO 380 385 TO 396 -
401 TO 404 409 TO 420 425 TO 428 433 TO 444 449 TO 452 457 TO 468 -
473 TO 476 481 TO 483 485 TO 487 490 TO 492 497 TO 500 505 TO 516 -
521 TO 524 529 TO 540 545 TO 548 553 TO 564 569 TO 572 577 TO 588 -
593 TO 596 601 TO 612 617 TO 620 625 TO 636 641 TO 644 649 TO 660 -
665 TO 668 673 TO 675 677 TO 679 681 TO 684 689 TO 692 697 TO 708 -
713 TO 716 721 TO 732 737 TO 740 745 TO 756 761 TO 764 769 TO 780 -
785 TO 788 793 TO 804 809 TO 812 817 TO 828 833 TO 836 841 TO 852 -
857 TO 860 865 TO 876 881 882 963 1159 TO 1182 1303 TO 1318 1406 TO 1408 -
1410 TO 1418 PR -50
1121 TO 1141 1196 TO 1210 PR -4.8
JOINT LOAD
303 FY -123
308 FY -23
252 FY -24
ELEMENT LOAD
533 TO 535 557 TO 559 581 TO 583 605 TO 607 629 TO 631 653 TO 655 PR -137
ELEMENT LOAD
164 TO 166 168 TO 170 172 TO 174 176 TO 178 180 TO 182 184 TO 186 190 194 -
195 TO 210 214 TO 216 229 TO 232 238 TO 240 253 TO 256 262 TO 264 277 TO 280 -
286 TO 288 301 TO 304 310 TO 312 325 TO 328 334 TO 336 349 TO 352 -
358 TO 360 373 TO 376 382 TO 384 397 TO 400 407 408 421 TO 424 431 432 445 -
446 TO 448 454 TO 456 469 TO 472 477 TO 480 493 TO 496 501 TO 504 517 TO 520 -
525 TO 528 541 TO 544 549 TO 552 565 TO 568 573 TO 576 589 TO 592 -
597 TO 600 613 TO 616 621 TO 624 637 TO 640 645 TO 648 661 TO 664 -
669 TO 672 685 TO 688 693 TO 696 709 TO 712 717 TO 720 733 TO 736 -
741 TO 744 757 TO 760 765 TO 768 781 TO 784 789 TO 792 805 TO 808 -
813 TO 816 829 TO 832 837 TO 840 853 TO 856 861 TO 864 877 TO 880 -
883 TO 930 1220 1222 TO 1226 1228 1230 1232 1234 1236 1238 1240 TO 1251 -
1253 1255 1256 1258 1435 TO 1444 PR -4.2
JOINT LOAD
955 961 1139 TO 1142 FY -225 FZ 45
ELEMENT LOAD
1178 1182 PR -580
MEMBER LOAD
1459 TO 1462 1471 TO 1474 UNI GZ 300
1463 TO 1470 1485 1486 1488 1490 UNI GX -115
*********************************************************************************
**********************************************************************************
LOAD 3 LOADTYPE Roof Live  TITLE LR
MEMBER LOAD
1051 1052 1066 TO 1069 1085 TO 1088 1093 TO 1096 1108 1109 1334 TO 1341 1349 -
1350 TO 1355 1370 TO 1373 1378 TO 1381 1389 TO 1392 1396 1398 TO 1399 -
1400 UNI GY -1.4
1042 1043 1063 1073 TO 1079 1101 TO 1105 1111 1401 UNI GY -0.7
**********************************************************************************
LOAD 4 LOADTYPE Wind  TITLE WX+VE-DN
WIND LOAD X 1 TYPE 1 XR -0.1 0.1 YR 0.8 10
WIND LOAD -X 1 TYPE 2 XR 11.8 11.9 YR 4.5 10
WIND LOAD -X 1 TYPE 2 XR 26.7 26.8 YR 0 10
MEMBER LOAD
1051 1052 1066 TO 1069 1085 TO 1088 1093 TO 1096 1108 1109 1334 TO 1341 1349 -
1350 TO 1355 1370 TO 1373 1378 TO 1381 1389 TO 1392 1396 1398 TO 1399 -
1400 UNI GY -1.85
1042 1043 1063 1073 TO 1079 1101 TO 1105 1111 1401 UNI GY -0.925
**********************************************************************************
LOAD 5 LOADTYPE Wind  TITLE WX-VE-DN
WIND LOAD X -1 TYPE 1 XR 26.7 26.8 YR 0 10
WIND LOAD X -1 TYPE 1 XR 11.8 11.9 YR 4.5 10
WIND LOAD -X -1 TYPE 2 XR -0.1 0.1 YR 0.8 10
MEMBER LOAD
1051 1052 1066 TO 1069 1085 TO 1088 1093 TO 1096 1108 1109 1334 TO 1341 1349 -
1350 TO 1355 1370 TO 1373 1378 TO 1381 1389 TO 1392 1396 1398 TO 1399 -
1400 UNI GY -1.85
1042 1043 1063 1073 TO 1079 1101 TO 1105 1111 1401 UNI GY -0.925
**********************************************************************************
LOAD 6 LOADTYPE Wind  TITLE WZ+VE-DN
WIND LOAD Z 1 TYPE 1 YR 0 10 ZR -0.1 0.1
WIND LOAD -Z 1 TYPE 3 YR 0 10 ZR 6.9 7.1
MEMBER LOAD
1051 1052 1066 TO 1069 1085 TO 1088 1093 TO 1096 1108 1109 1334 TO 1341 1349 -
1350 TO 1355 1370 TO 1373 1378 TO 1381 1389 TO 1392 1396 1398 TO 1399 -
1400 UNI GY -1.43
1042 1043 1063 1073 TO 1079 1101 TO 1105 1111 1401 UNI GY -0.72
**********************************************************************************
LOAD 7 LOADTYPE Wind  TITLE WZ-VE-DN
WIND LOAD Z -1 TYPE 1 YR 0 10 ZR 6.9 7.1
WIND LOAD -Z -1 TYPE 3 YR 0 10 ZR -0.1 0.1
MEMBER LOAD
1051 1052 1066 TO 1069 1085 TO 1088 1093 TO 1096 1108 1109 1334 TO 1341 1349 -
1350 TO 1355 1370 TO 1373 1378 TO 1381 1389 TO 1392 1396 1398 TO 1399 -
1400 UNI GY -1.43
1042 1043 1063 1073 TO 1079 1101 TO 1105 1111 1401 UNI GY -0.72
*****************************************************************
LOAD 8 LOADTYPE Wind  TITLE WX+VE-UP
WIND LOAD X 1 TYPE 1 XR -0.1 0.1 YR 0.8 10
WIND LOAD -X 1 TYPE 2 XR 11.8 11.9 YR 4.5 10
WIND LOAD -X 1 TYPE 2 XR 26.7 26.8 YR 0 10
MEMBER LOAD
1051 1052 1066 TO 1069 1085 TO 1088 1093 TO 1096 1108 1109 1334 TO 1341 1349 -
1350 TO 1355 1370 TO 1373 1378 TO 1381 1389 TO 1392 1396 1398 TO 1399 -
1400 UNI GY 1.85
1042 1043 1063 1073 TO 1079 1101 TO 1105 1111 1401 UNI GY 1.85
**********************************************************************************
LOAD 9 LOADTYPE Wind  TITLE WX-VE-UP
WIND LOAD X -1 TYPE 1 XR 26.7 26.8 YR 0 10
WIND LOAD X -1 TYPE 1 XR 11.8 11.9 YR 4.5 10
WIND LOAD -X -1 TYPE 2 XR -0.1 0.1 YR 0.8 10
MEMBER LOAD
1051 1052 1066 TO 1069 1085 TO 1088 1093 TO 1096 1108 1109 1334 TO 1341 1349 -
1350 TO 1355 1370 TO 1373 1378 TO 1381 1389 TO 1392 1396 1398 TO 1399 -
1400 UNI GY 1.85
1042 1043 1063 1073 TO 1079 1101 TO 1105 1111 1401 UNI GY 1.85
**********************************************************************************
LOAD 10 LOADTYPE Wind  TITLE WZ+VE-UP
WIND LOAD Z 1 TYPE 1 YR 0 10 ZR -0.1 0.1
WIND LOAD -Z 1 TYPE 3 YR 0 10 ZR 6.9 7.1
MEMBER LOAD
1051 1052 1066 TO 1069 1085 TO 1088 1093 TO 1096 1108 1109 1334 TO 1341 1349 -
1350 TO 1355 1370 TO 1373 1378 TO 1381 1389 TO 1392 1396 1398 TO 1399 -
1400 UNI GY 1.43
1042 1043 1063 1073 TO 1079 1101 TO 1105 1111 1401 UNI GY 1.43
**********************************************************************************
LOAD 11 LOADTYPE Wind  TITLE WZ-VE-UP
WIND LOAD Z -1 TYPE 1 YR 0 10 ZR 6.9 7.1
WIND LOAD -Z -1 TYPE 3 YR 0 10 ZR -0.1 0.1
MEMBER LOAD
1051 1052 1066 TO 1069 1085 TO 1088 1093 TO 1096 1108 1109 1334 TO 1341 1349 -
1350 TO 1355 1370 TO 1373 1378 TO 1381 1389 TO 1392 1396 1398 TO 1399 -
1400 UNI GY 1.43
1042 1043 1063 1073 TO 1079 1101 TO 1105 1111 1401 UNI GY 1.43
*****************************************************************
LOAD 12 LOADTYPE Soil  TITLE H (H)
ELEMENT LOAD
1435 1437 1439 1441 1443 1445 1446 TRAP JT -16 -12.0125 -12.0125 -16
1223 1225 1241 1243 1245 1247 1249 1251 1253 1255 1258 1436 1438 1440 1442 -
1444 1447 TRAP JT -12.0125 -9.67696 -9.67696 -12.0125
195 199 203 207 229 253 277 301 325 349 373 397 421 445 469 477 493 501 517 -
525 541 549 565 573 589 597 613 621 637 645 661 669 685 693 709 717 733 741 -
757 765 781 789 805 813 829 837 853 861 877 883 887 891 895 899 903 907 911 -
915 919 923 927 1220 1222 1224 1226 1228 1230 1232 1234 1236 1238 1240 1242 -
1244 1246 1248 1250 1256 TRAP JT -9.67696 -7.28446 -7.28446 -9.67696
164 168 172 176 180 184 196 200 204 208 214 230 238 254 262 278 286 302 310 -
326 334 350 358 374 382 398 422 446 454 470 478 494 502 518 526 542 550 566 -
574 590 598 614 622 638 646 662 670 686 694 710 718 734 742 758 766 782 790 -
806 814 830 838 854 862 878 884 888 892 896 900 904 908 912 916 920 924 -
928 TRAP JT -7.28446 -4.89196 -4.89196 -7.28446
165 169 173 177 181 185 197 201 205 209 215 231 239 255 263 279 287 303 311 -
327 335 351 359 375 383 399 407 423 431 447 455 471 479 495 503 519 527 543 -
551 567 575 591 599 615 623 639 647 663 671 687 695 711 719 735 743 759 767 -
783 791 807 815 831 839 855 863 879 885 889 893 897 901 905 909 913 917 921 -
925 929 TRAP JT -4.89196 -2.47098 -2.47098 -4.89196
166 170 174 178 182 186 190 194 198 202 206 210 216 232 240 256 264 280 288 -
304 312 328 336 352 360 376 384 400 408 424 432 448 456 472 480 496 504 520 -
528 544 552 568 576 592 600 616 624 640 648 664 672 688 696 712 720 736 744 -
760 768 784 792 808 816 832 840 856 864 880 886 890 894 898 902 906 910 914 -
918 922 926 930 TRAP JT -2.47098 -0.0500002 -0.0500002 -2.47098
***********************************************************************************
LOAD COMB 100 COMB - 1 DL + 1 H
1 1.0 12 1.0 
LOAD COMB 101 COMB - 1 DL + 0.6 H
1 1.0 12 0.6 
LOAD COMB 102 COMB - 1 DL
1 1.0 
LOAD COMB 103 COMB - 1 DL + 1 LL + 1 H
1 1.0 2 1.0 12 1.0 
LOAD COMB 104 COMB - 1 DL + 1 LL + 0.6 H
1 1.0 2 1.0 12 0.6 
LOAD COMB 105 COMB - 1 DL + 1 LL
1 1.0 2 1.0 
LOAD COMB 106 COMB - 1 DL + 1 R_LL + 1 H
1 1.0 3 1.0 12 1.0 
LOAD COMB 107 COMB - 1 DL + 1 R_LL + 0.6 H
1 1.0 3 1.0 12 0.6 
LOAD COMB 108 COMB - 1 DL + 1 R_LL
1 1.0 3 1.0 
LOAD COMB 109 COMB - 1 DL + 0.75 LL + 0.75 R_LL + 1 H
1 1.0 2 0.75 3 0.75 12 1.0 
LOAD COMB 110 COMB - 1 DL + 0.75 LL + 1 H
1 1.0 2 0.75 12 1.0 
LOAD COMB 111 COMB - 1 DL + 0.75 LL + 0.75 R_LL + 0.6 H
1 1.0 2 0.75 3 0.75 12 0.6 
LOAD COMB 112 COMB - 1 DL + 0.75 LL + 0.6 H
1 1.0 2 0.75 12 0.6 
LOAD COMB 113 COMB - 1 DL + 0.75 LL + 0.75 R_LL
1 1.0 2 0.75 3 0.75 
LOAD COMB 114 COMB - 1 DL + 0.75 LL
1 1.0 2 0.75 
LOAD COMB 115 COMB - 1 DL + 0.6 W + 1 H (1)
1 1.0 4 0.6 12 1.0 
LOAD COMB 116 COMB - 1 DL + 0.6 W + 1 H (2)
1 1.0 5 0.6 12 1.0 
LOAD COMB 117 COMB - 1 DL + 0.6 W + 1 H (3)
1 1.0 6 0.6 12 1.0 
LOAD COMB 118 COMB - 1 DL + 0.6 W + 1 H (4)
1 1.0 7 0.6 12 1.0 
LOAD COMB 119 COMB - 1 DL + 0.6 W + 1 H (5)
1 1.0 8 0.6 12 1.0 
LOAD COMB 120 COMB - 1 DL + 0.6 W + 1 H (6)
1 1.0 9 0.6 12 1.0 
LOAD COMB 121 COMB - 1 DL + 0.6 W + 1 H (7)
1 1.0 10 0.6 12 1.0 
LOAD COMB 122 COMB - 1 DL + 0.6 W + 1 H (8)
1 1.0 11 0.6 12 1.0 
LOAD COMB 123 COMB - 1 DL + 0.6 W + 0.6 H (1)
1 1.0 4 0.6 12 0.6 
LOAD COMB 124 COMB - 1 DL + 0.6 W + 0.6 H (2)
1 1.0 5 0.6 12 0.6 
LOAD COMB 125 COMB - 1 DL + 0.6 W + 0.6 H (3)
1 1.0 6 0.6 12 0.6 
LOAD COMB 126 COMB - 1 DL + 0.6 W + 0.6 H (4)
1 1.0 7 0.6 12 0.6 
LOAD COMB 127 COMB - 1 DL + 0.6 W + 0.6 H (5)
1 1.0 8 0.6 12 0.6 
LOAD COMB 128 COMB - 1 DL + 0.6 W + 0.6 H (6)
1 1.0 9 0.6 12 0.6 
LOAD COMB 129 COMB - 1 DL + 0.6 W + 0.6 H (7)
1 1.0 10 0.6 12 0.6 
LOAD COMB 130 COMB - 1 DL + 0.6 W + 0.6 H (8)
1 1.0 11 0.6 12 0.6 
LOAD COMB 131 COMB - 1 DL + 0.6 W (1)
1 1.0 4 0.6 
LOAD COMB 132 COMB - 1 DL + 0.6 W (2)
1 1.0 5 0.6 
LOAD COMB 133 COMB - 1 DL + 0.6 W (3)
1 1.0 6 0.6 
LOAD COMB 134 COMB - 1 DL + 0.6 W (4)
1 1.0 7 0.6 
LOAD COMB 135 COMB - 1 DL + 0.6 W (5)
1 1.0 8 0.6 
LOAD COMB 136 COMB - 1 DL + 0.6 W (6)
1 1.0 9 0.6 
LOAD COMB 137 COMB - 1 DL + 0.6 W (7)
1 1.0 10 0.6 
LOAD COMB 138 COMB - 1 DL + 0.6 W (8)
1 1.0 11 0.6 
LOAD COMB 139 COMB - 1 DL + 0.75 LL + 0.75 R_LL + 0.45 W + 1 H (1)
1 1.0 2 0.75 3 0.75 4 0.45 12 1.0 
LOAD COMB 140 COMB - 1 DL + 0.75 LL + 0.75 R_LL + 0.45 W + 1 H (2)
1 1.0 2 0.75 3 0.75 5 0.45 12 1.0 
LOAD COMB 141 COMB - 1 DL + 0.75 LL + 0.75 R_LL + 0.45 W + 1 H (3)
1 1.0 2 0.75 3 0.75 6 0.45 12 1.0 
LOAD COMB 142 COMB - 1 DL + 0.75 LL + 0.75 R_LL + 0.45 W + 1 H (4)
1 1.0 2 0.75 3 0.75 7 0.45 12 1.0 
LOAD COMB 143 COMB - 1 DL + 0.75 LL + 0.75 R_LL + 0.45 W + 1 H (5)
1 1.0 2 0.75 3 0.75 8 0.45 12 1.0 
LOAD COMB 144 COMB - 1 DL + 0.75 LL + 0.75 R_LL + 0.45 W + 1 H (6)
1 1.0 2 0.75 3 0.75 9 0.45 12 1.0 
LOAD COMB 145 COMB - 1 DL + 0.75 LL + 0.75 R_LL + 0.45 W + 1 H (7)
1 1.0 2 0.75 3 0.75 10 0.45 12 1.0 
LOAD COMB 146 COMB - 1 DL + 0.75 LL + 0.75 R_LL + 0.45 W + 1 H (8)
1 1.0 2 0.75 3 0.75 11 0.45 12 1.0 
LOAD COMB 147 COMB - 1 DL + 0.75 LL + 0.45 W + 1 H (1)
1 1.0 2 0.75 4 0.45 12 1.0 
LOAD COMB 148 COMB - 1 DL + 0.75 LL + 0.45 W + 1 H (2)
1 1.0 2 0.75 5 0.45 12 1.0 
LOAD COMB 149 COMB - 1 DL + 0.75 LL + 0.45 W + 1 H (3)
1 1.0 2 0.75 6 0.45 12 1.0 
LOAD COMB 150 COMB - 1 DL + 0.75 LL + 0.45 W + 1 H (4)
1 1.0 2 0.75 7 0.45 12 1.0 
LOAD COMB 151 COMB - 1 DL + 0.75 LL + 0.45 W + 1 H (5)
1 1.0 2 0.75 8 0.45 12 1.0 
LOAD COMB 152 COMB - 1 DL + 0.75 LL + 0.45 W + 1 H (6)
1 1.0 2 0.75 9 0.45 12 1.0 
LOAD COMB 153 COMB - 1 DL + 0.75 LL + 0.45 W + 1 H (7)
1 1.0 2 0.75 10 0.45 12 1.0 
LOAD COMB 154 COMB - 1 DL + 0.75 LL + 0.45 W + 1 H (8)
1 1.0 2 0.75 11 0.45 12 1.0 
LOAD COMB 155 COMB - 1 DL + 0.75 LL + 0.75 R_LL + 0.45 W + 0.6 H (1)
1 1.0 2 0.75 3 0.75 4 0.45 12 0.6 
LOAD COMB 156 COMB - 1 DL + 0.75 LL + 0.75 R_LL + 0.45 W + 0.6 H (2)
1 1.0 2 0.75 3 0.75 5 0.45 12 0.6 
LOAD COMB 157 COMB - 1 DL + 0.75 LL + 0.75 R_LL + 0.45 W + 0.6 H (3)
1 1.0 2 0.75 3 0.75 6 0.45 12 0.6 
LOAD COMB 158 COMB - 1 DL + 0.75 LL + 0.75 R_LL + 0.45 W + 0.6 H (4)
1 1.0 2 0.75 3 0.75 7 0.45 12 0.6 
LOAD COMB 159 COMB - 1 DL + 0.75 LL + 0.75 R_LL + 0.45 W + 0.6 H (5)
1 1.0 2 0.75 3 0.75 8 0.45 12 0.6 
LOAD COMB 160 COMB - 1 DL + 0.75 LL + 0.75 R_LL + 0.45 W + 0.6 H (6)
1 1.0 2 0.75 3 0.75 9 0.45 12 0.6 
LOAD COMB 161 COMB - 1 DL + 0.75 LL + 0.75 R_LL + 0.45 W + 0.6 H (7)
1 1.0 2 0.75 3 0.75 10 0.45 12 0.6 
LOAD COMB 162 COMB - 1 DL + 0.75 LL + 0.75 R_LL + 0.45 W + 0.6 H (8)
1 1.0 2 0.75 3 0.75 11 0.45 12 0.6 
LOAD COMB 163 COMB - 1 DL + 0.75 LL + 0.45 W + 0.6 H (1)
1 1.0 2 0.75 4 0.45 12 0.6 
LOAD COMB 164 COMB - 1 DL + 0.75 LL + 0.45 W + 0.6 H (2)
1 1.0 2 0.75 5 0.45 12 0.6 
LOAD COMB 165 COMB - 1 DL + 0.75 LL + 0.45 W + 0.6 H (3)
1 1.0 2 0.75 6 0.45 12 0.6 
LOAD COMB 166 COMB - 1 DL + 0.75 LL + 0.45 W + 0.6 H (4)
1 1.0 2 0.75 7 0.45 12 0.6 
LOAD COMB 167 COMB - 1 DL + 0.75 LL + 0.45 W + 0.6 H (5)
1 1.0 2 0.75 8 0.45 12 0.6 
LOAD COMB 168 COMB - 1 DL + 0.75 LL + 0.45 W + 0.6 H (6)
1 1.0 2 0.75 9 0.45 12 0.6 
LOAD COMB 169 COMB - 1 DL + 0.75 LL + 0.45 W + 0.6 H (7)
1 1.0 2 0.75 10 0.45 12 0.6 
LOAD COMB 170 COMB - 1 DL + 0.75 LL + 0.45 W + 0.6 H (8)
1 1.0 2 0.75 11 0.45 12 0.6 
LOAD COMB 171 COMB - 1 DL + 0.75 LL + 0.75 R_LL + 0.45 W (1)
1 1.0 2 0.75 3 0.75 4 0.45 
LOAD COMB 172 COMB - 1 DL + 0.75 LL + 0.75 R_LL + 0.45 W (2)
1 1.0 2 0.75 3 0.75 5 0.45 
LOAD COMB 173 COMB - 1 DL + 0.75 LL + 0.75 R_LL + 0.45 W (3)
1 1.0 2 0.75 3 0.75 6 0.45 
LOAD COMB 174 COMB - 1 DL + 0.75 LL + 0.75 R_LL + 0.45 W (4)
1 1.0 2 0.75 3 0.75 7 0.45 
LOAD COMB 175 COMB - 1 DL + 0.75 LL + 0.75 R_LL + 0.45 W (5)
1 1.0 2 0.75 3 0.75 8 0.45 
LOAD COMB 176 COMB - 1 DL + 0.75 LL + 0.75 R_LL + 0.45 W (6)
1 1.0 2 0.75 3 0.75 9 0.45 
LOAD COMB 177 COMB - 1 DL + 0.75 LL + 0.75 R_LL + 0.45 W (7)
1 1.0 2 0.75 3 0.75 10 0.45 
LOAD COMB 178 COMB - 1 DL + 0.75 LL + 0.75 R_LL + 0.45 W (8)
1 1.0 2 0.75 3 0.75 11 0.45 
LOAD COMB 179 COMB - 1 DL + 0.75 LL + 0.45 W (1)
1 1.0 2 0.75 4 0.45 
LOAD COMB 180 COMB - 1 DL + 0.75 LL + 0.45 W (2)
1 1.0 2 0.75 5 0.45 
LOAD COMB 181 COMB - 1 DL + 0.75 LL + 0.45 W (3)
1 1.0 2 0.75 6 0.45 
LOAD COMB 182 COMB - 1 DL + 0.75 LL + 0.45 W (4)
1 1.0 2 0.75 7 0.45 
LOAD COMB 183 COMB - 1 DL + 0.75 LL + 0.45 W (5)
1 1.0 2 0.75 8 0.45 
LOAD COMB 184 COMB - 1 DL + 0.75 LL + 0.45 W (6)
1 1.0 2 0.75 9 0.45 
LOAD COMB 185 COMB - 1 DL + 0.75 LL + 0.45 W (7)
1 1.0 2 0.75 10 0.45 
LOAD COMB 186 COMB - 1 DL + 0.75 LL + 0.45 W (8)
1 1.0 2 0.75 11 0.45 
LOAD COMB 187 COMB - 0.6 DL + 0.6 W (1)
1 0.6 4 0.6 
LOAD COMB 188 COMB - 0.6 DL + 0.6 W (2)
1 0.6 5 0.6 
LOAD COMB 189 COMB - 0.6 DL + 0.6 W (3)
1 0.6 6 0.6 
LOAD COMB 190 COMB - 0.6 DL + 0.6 W (4)
1 0.6 7 0.6 
LOAD COMB 191 COMB - 0.6 DL + 0.6 W (5)
1 0.6 8 0.6 
LOAD COMB 192 COMB - 0.6 DL + 0.6 W (6)
1 0.6 9 0.6 
LOAD COMB 193 COMB - 0.6 DL + 0.6 W (7)
1 0.6 10 0.6 
LOAD COMB 194 COMB - 0.6 DL + 0.6 W (8)
1 0.6 11 0.6 
LOAD COMB 195 COMB - 1 DL + 0.7 EQ-H + 1 H (1)
1 1.0 13 0.7 12 1.0 
LOAD COMB 196 COMB - 1 DL + 0.7 EQ-H + 1 H (2)
1 1.0 14 0.7 12 1.0 
LOAD COMB 197 COMB - 1 DL + -0.7 EQ-H + 1 H (1)
1 1.0 13 -0.7 12 1.0 
LOAD COMB 198 COMB - 1 DL + -0.7 EQ-H + 1 H (2)
1 1.0 14 -0.7 12 1.0 
LOAD COMB 199 COMB - 1 DL + 0.7 EQ-H + 0.6 H (1)
1 1.0 13 0.7 12 0.6 
LOAD COMB 200 COMB - 1 DL + 0.7 EQ-H + 0.6 H (2)
1 1.0 14 0.7 12 0.6 
LOAD COMB 201 COMB - 1 DL + -0.7 EQ-H + 0.6 H (1)
1 1.0 13 -0.7 12 0.6 
LOAD COMB 202 COMB - 1 DL + -0.7 EQ-H + 0.6 H (2)
1 1.0 14 -0.7 12 0.6 
LOAD COMB 203 COMB - 1 DL + 0.7 EQ-H (1)
1 1.0 13 0.7 
LOAD COMB 204 COMB - 1 DL + 0.7 EQ-H (2)
1 1.0 14 0.7 
LOAD COMB 205 COMB - 1 DL + -0.7 EQ-H (1)
1 1.0 13 -0.7 
LOAD COMB 206 COMB - 1 DL + -0.7 EQ-H (2)
1 1.0 14 -0.7 
LOAD COMB 207 COMB - 1 DL + 0.75 LL + 0.525 EQ-H + 1 H (1)
1 1.0 2 0.75 13 0.525 12 1.0 
LOAD COMB 208 COMB - 1 DL + 0.75 LL + 0.525 EQ-H + 1 H (2)
1 1.0 2 0.75 14 0.525 12 1.0 
LOAD COMB 209 COMB - 1 DL + 0.75 LL + -0.525 EQ-H + 1 H (1)
1 1.0 2 0.75 13 -0.525 12 1.0 
LOAD COMB 210 COMB - 1 DL + 0.75 LL + -0.525 EQ-H + 1 H (2)
1 1.0 2 0.75 14 -0.525 12 1.0 
LOAD COMB 211 COMB - 1 DL + 0.75 LL + 0.525 EQ-H + 0.6 H (1)
1 1.0 2 0.75 13 0.525 12 0.6 
LOAD COMB 212 COMB - 1 DL + 0.75 LL + 0.525 EQ-H + 0.6 H (2)
1 1.0 2 0.75 14 0.525 12 0.6 
LOAD COMB 213 COMB - 1 DL + 0.75 LL + -0.525 EQ-H + 0.6 H (1)
1 1.0 2 0.75 13 -0.525 12 0.6 
LOAD COMB 214 COMB - 1 DL + 0.75 LL + -0.525 EQ-H + 0.6 H (2)
1 1.0 2 0.75 14 -0.525 12 0.6 
LOAD COMB 215 COMB - 1 DL + 0.75 LL + 0.525 EQ-H (1)
1 1.0 2 0.75 13 0.525 
LOAD COMB 216 COMB - 1 DL + 0.75 LL + 0.525 EQ-H (2)
1 1.0 2 0.75 14 0.525 
LOAD COMB 217 COMB - 1 DL + 0.75 LL + -0.525 EQ-H (1)
1 1.0 2 0.75 13 -0.525 
LOAD COMB 218 COMB - 1 DL + 0.75 LL + -0.525 EQ-H (2)
1 1.0 2 0.75 14 -0.525 
LOAD COMB 219 COMB - 0.6 DL + 0.7 EQ-H + 1 H (1)
1 0.6 13 0.7 12 1.0 
LOAD COMB 220 COMB - 0.6 DL + 0.7 EQ-H + 1 H (2)
1 0.6 14 0.7 12 1.0 
LOAD COMB 221 COMB - 0.6 DL + -0.7 EQ-H + 1 H (1)
1 0.6 13 -0.7 12 1.0 
LOAD COMB 222 COMB - 0.6 DL + -0.7 EQ-H + 1 H (2)
1 0.6 14 -0.7 12 1.0 
LOAD COMB 223 COMB - 0.6 DL + 0.7 EQ-H + 0.6 H (1)
1 0.6 13 0.7 12 0.6 
LOAD COMB 224 COMB - 0.6 DL + 0.7 EQ-H + 0.6 H (2)
1 0.6 14 0.7 12 0.6 
LOAD COMB 225 COMB - 0.6 DL + -0.7 EQ-H + 0.6 H (1)
1 0.6 13 -0.7 12 0.6 
LOAD COMB 226 COMB - 0.6 DL + -0.7 EQ-H + 0.6 H (2)
1 0.6 14 -0.7 12 0.6 
LOAD COMB 227 COMB - 0.6 DL + 0.7 EQ-H (1)
1 0.6 13 0.7 
LOAD COMB 228 COMB - 0.6 DL + 0.7 EQ-H (2)
1 0.6 14 0.7 
LOAD COMB 229 COMB - 0.6 DL + -0.7 EQ-H (1)
1 0.6 13 -0.7 
LOAD COMB 230 COMB - 0.6 DL + -0.7 EQ-H (2)
1 0.6 14 -0.7 
LOAD COMB 400 COMB - 1.4 DL + 1.6 H
1 1.4 12 1.6 
LOAD COMB 401 COMB - 1.4 DL + 0.9 H
1 1.4 12 0.9 
LOAD COMB 402 COMB - 1.4 DL
1 1.4 
LOAD COMB 403 COMB - 1.2 DL + 1.6 LL + 0.5 R_LL + 1.6 H
1 1.2 2 1.6 3 0.5 12 1.6 
LOAD COMB 404 COMB - 1.2 DL + 1.6 LL + 1.6 H
1 1.2 2 1.6 12 1.6 
LOAD COMB 405 COMB - 1.2 DL + 1.6 LL + 0.5 R_LL + 0.9 H
1 1.2 2 1.6 3 0.5 12 0.9 
LOAD COMB 406 COMB - 1.2 DL + 1.6 LL + 0.9 H
1 1.2 2 1.6 12 0.9 
LOAD COMB 407 COMB - 1.2 DL + 1.6 LL + 0.5 R_LL
1 1.2 2 1.6 3 0.5 
LOAD COMB 408 COMB - 1.2 DL + 1.6 LL
1 1.2 2 1.6 
LOAD COMB 409 COMB - 1.2 DL + 1 LL + 1.6 R_LL + 1.6 H
1 1.2 2 1.0 3 1.6 12 1.6 
LOAD COMB 410 COMB - 1.2 DL + 1.6 R_LL + 0.5 W + 1.6 H (1)
1 1.2 3 1.6 4 0.5 12 1.6 
LOAD COMB 411 COMB - 1.2 DL + 1.6 R_LL + 0.5 W + 1.6 H (2)
1 1.2 3 1.6 5 0.5 12 1.6 
LOAD COMB 412 COMB - 1.2 DL + 1.6 R_LL + 0.5 W + 1.6 H (3)
1 1.2 3 1.6 6 0.5 12 1.6 
LOAD COMB 413 COMB - 1.2 DL + 1.6 R_LL + 0.5 W + 1.6 H (4)
1 1.2 3 1.6 7 0.5 12 1.6 
LOAD COMB 414 COMB - 1.2 DL + 1.6 R_LL + 0.5 W + 1.6 H (5)
1 1.2 3 1.6 8 0.5 12 1.6 
LOAD COMB 415 COMB - 1.2 DL + 1.6 R_LL + 0.5 W + 1.6 H (6)
1 1.2 3 1.6 9 0.5 12 1.6 
LOAD COMB 416 COMB - 1.2 DL + 1.6 R_LL + 0.5 W + 1.6 H (7)
1 1.2 3 1.6 10 0.5 12 1.6 
LOAD COMB 417 COMB - 1.2 DL + 1.6 R_LL + 0.5 W + 1.6 H (8)
1 1.2 3 1.6 11 0.5 12 1.6 
LOAD COMB 418 COMB - 1.2 DL + 1 LL + 1.6 H
1 1.2 2 1.0 12 1.6 
LOAD COMB 419 COMB - 1.2 DL + 0.5 W + 1.6 H (1)
1 1.2 4 0.5 12 1.6 
LOAD COMB 420 COMB - 1.2 DL + 0.5 W + 1.6 H (2)
1 1.2 5 0.5 12 1.6 
LOAD COMB 421 COMB - 1.2 DL + 0.5 W + 1.6 H (3)
1 1.2 6 0.5 12 1.6 
LOAD COMB 422 COMB - 1.2 DL + 0.5 W + 1.6 H (4)
1 1.2 7 0.5 12 1.6 
LOAD COMB 423 COMB - 1.2 DL + 0.5 W + 1.6 H (5)
1 1.2 8 0.5 12 1.6 
LOAD COMB 424 COMB - 1.2 DL + 0.5 W + 1.6 H (6)
1 1.2 9 0.5 12 1.6 
LOAD COMB 425 COMB - 1.2 DL + 0.5 W + 1.6 H (7)
1 1.2 10 0.5 12 1.6 
LOAD COMB 426 COMB - 1.2 DL + 0.5 W + 1.6 H (8)
1 1.2 11 0.5 12 1.6 
LOAD COMB 427 COMB - 1.2 DL + 1 LL + 1.6 R_LL + 0.9 H
1 1.2 2 1.0 3 1.6 12 0.9 
LOAD COMB 428 COMB - 1.2 DL + 1.6 R_LL + 0.5 W + 0.9 H (1)
1 1.2 3 1.6 4 0.5 12 0.9 
LOAD COMB 429 COMB - 1.2 DL + 1.6 R_LL + 0.5 W + 0.9 H (2)
1 1.2 3 1.6 5 0.5 12 0.9 
LOAD COMB 430 COMB - 1.2 DL + 1.6 R_LL + 0.5 W + 0.9 H (3)
1 1.2 3 1.6 6 0.5 12 0.9 
LOAD COMB 431 COMB - 1.2 DL + 1.6 R_LL + 0.5 W + 0.9 H (4)
1 1.2 3 1.6 7 0.5 12 0.9 
LOAD COMB 432 COMB - 1.2 DL + 1.6 R_LL + 0.5 W + 0.9 H (5)
1 1.2 3 1.6 8 0.5 12 0.9 
LOAD COMB 433 COMB - 1.2 DL + 1.6 R_LL + 0.5 W + 0.9 H (6)
1 1.2 3 1.6 9 0.5 12 0.9 
LOAD COMB 434 COMB - 1.2 DL + 1.6 R_LL + 0.5 W + 0.9 H (7)
1 1.2 3 1.6 10 0.5 12 0.9 
LOAD COMB 435 COMB - 1.2 DL + 1.6 R_LL + 0.5 W + 0.9 H (8)
1 1.2 3 1.6 11 0.5 12 0.9 
LOAD COMB 436 COMB - 1.2 DL + 1 LL + 0.9 H
1 1.2 2 1.0 12 0.9 
LOAD COMB 437 COMB - 1.2 DL + 0.5 W + 0.9 H (1)
1 1.2 4 0.5 12 0.9 
LOAD COMB 438 COMB - 1.2 DL + 0.5 W + 0.9 H (2)
1 1.2 5 0.5 12 0.9 
LOAD COMB 439 COMB - 1.2 DL + 0.5 W + 0.9 H (3)
1 1.2 6 0.5 12 0.9 
LOAD COMB 440 COMB - 1.2 DL + 0.5 W + 0.9 H (4)
1 1.2 7 0.5 12 0.9 
LOAD COMB 441 COMB - 1.2 DL + 0.5 W + 0.9 H (5)
1 1.2 8 0.5 12 0.9 
LOAD COMB 442 COMB - 1.2 DL + 0.5 W + 0.9 H (6)
1 1.2 9 0.5 12 0.9 
LOAD COMB 443 COMB - 1.2 DL + 0.5 W + 0.9 H (7)
1 1.2 10 0.5 12 0.9 
LOAD COMB 444 COMB - 1.2 DL + 0.5 W + 0.9 H (8)
1 1.2 11 0.5 12 0.9 
LOAD COMB 445 COMB - 1.2 DL + 1 LL + 1.6 R_LL
1 1.2 2 1.0 3 1.6 
LOAD COMB 446 COMB - 1.2 DL + 1.6 R_LL + 0.5 W (1)
1 1.2 3 1.6 4 0.5 
LOAD COMB 447 COMB - 1.2 DL + 1.6 R_LL + 0.5 W (2)
1 1.2 3 1.6 5 0.5 
LOAD COMB 448 COMB - 1.2 DL + 1.6 R_LL + 0.5 W (3)
1 1.2 3 1.6 6 0.5 
LOAD COMB 449 COMB - 1.2 DL + 1.6 R_LL + 0.5 W (4)
1 1.2 3 1.6 7 0.5 
LOAD COMB 450 COMB - 1.2 DL + 1.6 R_LL + 0.5 W (5)
1 1.2 3 1.6 8 0.5 
LOAD COMB 451 COMB - 1.2 DL + 1.6 R_LL + 0.5 W (6)
1 1.2 3 1.6 9 0.5 
LOAD COMB 452 COMB - 1.2 DL + 1.6 R_LL + 0.5 W (7)
1 1.2 3 1.6 10 0.5 
LOAD COMB 453 COMB - 1.2 DL + 1.6 R_LL + 0.5 W (8)
1 1.2 3 1.6 11 0.5 
LOAD COMB 454 COMB - 1.2 DL + 1 LL
1 1.2 2 1.0 
LOAD COMB 455 COMB - 1.2 DL + 0.5 W (1)
1 1.2 4 0.5 
LOAD COMB 456 COMB - 1.2 DL + 0.5 W (2)
1 1.2 5 0.5 
LOAD COMB 457 COMB - 1.2 DL + 0.5 W (3)
1 1.2 6 0.5 
LOAD COMB 458 COMB - 1.2 DL + 0.5 W (4)
1 1.2 7 0.5 
LOAD COMB 459 COMB - 1.2 DL + 0.5 W (5)
1 1.2 8 0.5 
LOAD COMB 460 COMB - 1.2 DL + 0.5 W (6)
1 1.2 9 0.5 
LOAD COMB 461 COMB - 1.2 DL + 0.5 W (7)
1 1.2 10 0.5 
LOAD COMB 462 COMB - 1.2 DL + 0.5 W (8)
1 1.2 11 0.5 
LOAD COMB 463 COMB - 1.2 DL + 1 LL + 0.5 R_LL + 1 W + 1.6 H (1)
1 1.2 2 1.0 3 0.5 4 1.0 12 1.6 
LOAD COMB 464 COMB - 1.2 DL + 1 LL + 0.5 R_LL + 1 W + 1.6 H (2)
1 1.2 2 1.0 3 0.5 5 1.0 12 1.6 
LOAD COMB 465 COMB - 1.2 DL + 1 LL + 0.5 R_LL + 1 W + 1.6 H (3)
1 1.2 2 1.0 3 0.5 6 1.0 12 1.6 
LOAD COMB 466 COMB - 1.2 DL + 1 LL + 0.5 R_LL + 1 W + 1.6 H (4)
1 1.2 2 1.0 3 0.5 7 1.0 12 1.6 
LOAD COMB 467 COMB - 1.2 DL + 1 LL + 0.5 R_LL + 1 W + 1.6 H (5)
1 1.2 2 1.0 3 0.5 8 1.0 12 1.6 
LOAD COMB 468 COMB - 1.2 DL + 1 LL + 0.5 R_LL + 1 W + 1.6 H (6)
1 1.2 2 1.0 3 0.5 9 1.0 12 1.6 
LOAD COMB 469 COMB - 1.2 DL + 1 LL + 0.5 R_LL + 1 W + 1.6 H (7)
1 1.2 2 1.0 3 0.5 10 1.0 12 1.6 
LOAD COMB 470 COMB - 1.2 DL + 1 LL + 0.5 R_LL + 1 W + 1.6 H (8)
1 1.2 2 1.0 3 0.5 11 1.0 12 1.6 
LOAD COMB 471 COMB - 1.2 DL + 1 LL + 1 W + 1.6 H (1)
1 1.2 2 1.0 4 1.0 12 1.6 
LOAD COMB 472 COMB - 1.2 DL + 1 LL + 1 W + 1.6 H (2)
1 1.2 2 1.0 5 1.0 12 1.6 
LOAD COMB 473 COMB - 1.2 DL + 1 LL + 1 W + 1.6 H (3)
1 1.2 2 1.0 6 1.0 12 1.6 
LOAD COMB 474 COMB - 1.2 DL + 1 LL + 1 W + 1.6 H (4)
1 1.2 2 1.0 7 1.0 12 1.6 
LOAD COMB 475 COMB - 1.2 DL + 1 LL + 1 W + 1.6 H (5)
1 1.2 2 1.0 8 1.0 12 1.6 
LOAD COMB 476 COMB - 1.2 DL + 1 LL + 1 W + 1.6 H (6)
1 1.2 2 1.0 9 1.0 12 1.6 
LOAD COMB 477 COMB - 1.2 DL + 1 LL + 1 W + 1.6 H (7)
1 1.2 2 1.0 10 1.0 12 1.6 
LOAD COMB 478 COMB - 1.2 DL + 1 LL + 1 W + 1.6 H (8)
1 1.2 2 1.0 11 1.0 12 1.6 
LOAD COMB 479 COMB - 1.2 DL + 1 LL + 0.5 R_LL + 1 W + 0.9 H (1)
1 1.2 2 1.0 3 0.5 4 1.0 12 0.9 
LOAD COMB 480 COMB - 1.2 DL + 1 LL + 0.5 R_LL + 1 W + 0.9 H (2)
1 1.2 2 1.0 3 0.5 5 1.0 12 0.9 
LOAD COMB 481 COMB - 1.2 DL + 1 LL + 0.5 R_LL + 1 W + 0.9 H (3)
1 1.2 2 1.0 3 0.5 6 1.0 12 0.9 
LOAD COMB 482 COMB - 1.2 DL + 1 LL + 0.5 R_LL + 1 W + 0.9 H (4)
1 1.2 2 1.0 3 0.5 7 1.0 12 0.9 
LOAD COMB 483 COMB - 1.2 DL + 1 LL + 0.5 R_LL + 1 W + 0.9 H (5)
1 1.2 2 1.0 3 0.5 8 1.0 12 0.9 
LOAD COMB 484 COMB - 1.2 DL + 1 LL + 0.5 R_LL + 1 W + 0.9 H (6)
1 1.2 2 1.0 3 0.5 9 1.0 12 0.9 
LOAD COMB 485 COMB - 1.2 DL + 1 LL + 0.5 R_LL + 1 W + 0.9 H (7)
1 1.2 2 1.0 3 0.5 10 1.0 12 0.9 
LOAD COMB 486 COMB - 1.2 DL + 1 LL + 0.5 R_LL + 1 W + 0.9 H (8)
1 1.2 2 1.0 3 0.5 11 1.0 12 0.9 
LOAD COMB 487 COMB - 1.2 DL + 1 LL + 1 W + 0.9 H (1)
1 1.2 2 1.0 4 1.0 12 0.9 
LOAD COMB 488 COMB - 1.2 DL + 1 LL + 1 W + 0.9 H (2)
1 1.2 2 1.0 5 1.0 12 0.9 
LOAD COMB 489 COMB - 1.2 DL + 1 LL + 1 W + 0.9 H (3)
1 1.2 2 1.0 6 1.0 12 0.9 
LOAD COMB 490 COMB - 1.2 DL + 1 LL + 1 W + 0.9 H (4)
1 1.2 2 1.0 7 1.0 12 0.9 
LOAD COMB 491 COMB - 1.2 DL + 1 LL + 1 W + 0.9 H (5)
1 1.2 2 1.0 8 1.0 12 0.9 
LOAD COMB 492 COMB - 1.2 DL + 1 LL + 1 W + 0.9 H (6)
1 1.2 2 1.0 9 1.0 12 0.9 
LOAD COMB 493 COMB - 1.2 DL + 1 LL + 1 W + 0.9 H (7)
1 1.2 2 1.0 10 1.0 12 0.9 
LOAD COMB 494 COMB - 1.2 DL + 1 LL + 1 W + 0.9 H (8)
1 1.2 2 1.0 11 1.0 12 0.9 
LOAD COMB 495 COMB - 1.2 DL + 1 LL + 0.5 R_LL + 1 W (1)
1 1.2 2 1.0 3 0.5 4 1.0 
LOAD COMB 496 COMB - 1.2 DL + 1 LL + 0.5 R_LL + 1 W (2)
1 1.2 2 1.0 3 0.5 5 1.0 
LOAD COMB 497 COMB - 1.2 DL + 1 LL + 0.5 R_LL + 1 W (3)
1 1.2 2 1.0 3 0.5 6 1.0 
LOAD COMB 498 COMB - 1.2 DL + 1 LL + 0.5 R_LL + 1 W (4)
1 1.2 2 1.0 3 0.5 7 1.0 
LOAD COMB 499 COMB - 1.2 DL + 1 LL + 0.5 R_LL + 1 W (5)
1 1.2 2 1.0 3 0.5 8 1.0 
LOAD COMB 500 COMB - 1.2 DL + 1 LL + 0.5 R_LL + 1 W (6)
1 1.2 2 1.0 3 0.5 9 1.0 
LOAD COMB 501 COMB - 1.2 DL + 1 LL + 0.5 R_LL + 1 W (7)
1 1.2 2 1.0 3 0.5 10 1.0 
LOAD COMB 502 COMB - 1.2 DL + 1 LL + 0.5 R_LL + 1 W (8)
1 1.2 2 1.0 3 0.5 11 1.0 
LOAD COMB 503 COMB - 1.2 DL + 1 LL + 1 W (1)
1 1.2 2 1.0 4 1.0 
LOAD COMB 504 COMB - 1.2 DL + 1 LL + 1 W (2)
1 1.2 2 1.0 5 1.0 
LOAD COMB 505 COMB - 1.2 DL + 1 LL + 1 W (3)
1 1.2 2 1.0 6 1.0 
LOAD COMB 506 COMB - 1.2 DL + 1 LL + 1 W (4)
1 1.2 2 1.0 7 1.0 
LOAD COMB 507 COMB - 1.2 DL + 1 LL + 1 W (5)
1 1.2 2 1.0 8 1.0 
LOAD COMB 508 COMB - 1.2 DL + 1 LL + 1 W (6)
1 1.2 2 1.0 9 1.0 
LOAD COMB 509 COMB - 1.2 DL + 1 LL + 1 W (7)
1 1.2 2 1.0 10 1.0 
LOAD COMB 510 COMB - 1.2 DL + 1 LL + 1 W (8)
1 1.2 2 1.0 11 1.0 
LOAD COMB 511 COMB - 0.9 DL + 1 W (1)
1 0.9 4 1.0 
LOAD COMB 512 COMB - 0.9 DL + 1 W (2)
1 0.9 5 1.0 
LOAD COMB 513 COMB - 0.9 DL + 1 W (3)
1 0.9 6 1.0 
LOAD COMB 514 COMB - 0.9 DL + 1 W (4)
1 0.9 7 1.0 
LOAD COMB 515 COMB - 0.9 DL + 1 W (5)
1 0.9 8 1.0 
LOAD COMB 516 COMB - 0.9 DL + 1 W (6)
1 0.9 9 1.0 
LOAD COMB 517 COMB - 0.9 DL + 1 W (7)
1 0.9 10 1.0 
LOAD COMB 518 COMB - 0.9 DL + 1 W (8)
1 0.9 11 1.0 
LOAD COMB 519 COMB - 1.2 DL + 1 LL + 1 EQ-H + 1.6 H (1)
1 1.2 2 1.0 13 1.0 12 1.6 
LOAD COMB 520 COMB - 1.2 DL + 1 LL + 1 EQ-H + 1.6 H (2)
1 1.2 2 1.0 14 1.0 12 1.6 
LOAD COMB 521 COMB - 1.2 DL + 1 LL + -1 EQ-H + 1.6 H (1)
1 1.2 2 1.0 13 -1.0 12 1.6 
LOAD COMB 522 COMB - 1.2 DL + 1 LL + -1 EQ-H + 1.6 H (2)
1 1.2 2 1.0 14 -1.0 12 1.6 
LOAD COMB 523 COMB - 1.2 DL + 1 LL + 1 EQ-H + 0.9 H (1)
1 1.2 2 1.0 13 1.0 12 0.9 
LOAD COMB 524 COMB - 1.2 DL + 1 LL + 1 EQ-H + 0.9 H (2)
1 1.2 2 1.0 14 1.0 12 0.9 
LOAD COMB 525 COMB - 1.2 DL + 1 LL + -1 EQ-H + 0.9 H (1)
1 1.2 2 1.0 13 -1.0 12 0.9 
LOAD COMB 526 COMB - 1.2 DL + 1 LL + -1 EQ-H + 0.9 H (2)
1 1.2 2 1.0 14 -1.0 12 0.9 
LOAD COMB 527 COMB - 1.2 DL + 1 LL + 1 EQ-H (1)
1 1.2 2 1.0 13 1.0 
LOAD COMB 528 COMB - 1.2 DL + 1 LL + 1 EQ-H (2)
1 1.2 2 1.0 14 1.0 
LOAD COMB 529 COMB - 1.2 DL + 1 LL + -1 EQ-H (1)
1 1.2 2 1.0 13 -1.0 
LOAD COMB 530 COMB - 1.2 DL + 1 LL + -1 EQ-H (2)
1 1.2 2 1.0 14 -1.0 
LOAD COMB 531 COMB - 0.9 DL + 1 EQ-H + 1.6 H (1)
1 0.9 13 1.0 12 1.6 
LOAD COMB 532 COMB - 0.9 DL + 1 EQ-H + 1.6 H (2)
1 0.9 14 1.0 12 1.6 
LOAD COMB 533 COMB - 0.9 DL + -1 EQ-H + 1.6 H (1)
1 0.9 13 -1.0 12 1.6 
LOAD COMB 534 COMB - 0.9 DL + -1 EQ-H + 1.6 H (2)
1 0.9 14 -1.0 12 1.6 
LOAD COMB 535 COMB - 0.9 DL + 1 EQ-H + 0.9 H (1)
1 0.9 13 1.0 12 0.9 
LOAD COMB 536 COMB - 0.9 DL + 1 EQ-H + 0.9 H (2)
1 0.9 14 1.0 12 0.9 
LOAD COMB 537 COMB - 0.9 DL + -1 EQ-H + 0.9 H (1)
1 0.9 13 -1.0 12 0.9 
LOAD COMB 538 COMB - 0.9 DL + -1 EQ-H + 0.9 H (2)
1 0.9 14 -1.0 12 0.9 
LOAD COMB 539 COMB - 0.9 DL + 1 EQ-H (1)
1 0.9 13 1.0 
LOAD COMB 540 COMB - 0.9 DL + 1 EQ-H (2)
1 0.9 14 1.0 
LOAD COMB 541 COMB - 0.9 DL + -1 EQ-H (1)
1 0.9 13 -1.0 
LOAD COMB 542 COMB - 0.9 DL + -1 EQ-H (2)
1 0.9 14 -1.0 
***************************************************************
PERFORM ANALYSIS
******************************************************************
DEFINE ENVELOPE
100 TO 230 ENVELOPE 1 TYPE SERVICEABILITY
400 TO 542 ENVELOPE 2 TYPE STRENGTH
END DEFINE ENVELOPE
LOAD LIST ENV 1 2
******************************************************************
START CONCRETE DESIGN
CODE ACI 2011
TRACK 0 MEMB _RC
FC 28000 MEMB _RC
FYMAIN 420000 MEMB _RC
FYSEC 420000 MEMB _RC
MAXMAIN 25 MEMB _RC
MINMAIN 16 MEMB _RC
MINSEC 10 MEMB _RC
CLB 0.075 MEMB _PB-01
CLB 0.075 MEMB _PB-01A
CLB 0.075 MEMB _PB-02
CLB 0.075 MEMB _PB-02A
CLB 0.075 MEMB _PB-03
CLB 0.075 MEMB _PB-04
CLB 0.075 MEMB _PB-05
CLT 0.075 MEMB _PB-01
CLT 0.075 MEMB _PB-01A
CLT 0.075 MEMB _PB-02
CLT 0.075 MEMB _PB-02A
CLT 0.075 MEMB _PB-03
CLT 0.075 MEMB _PB-04
CLT 0.075 MEMB _PB-05
CLB 0.05 MEMB _RB-01
CLB 0.05 MEMB _RB-02
CLB 0.05 MEMB _RB-03
CLB 0.05 MEMB _RB-04
CLB 0.05 MEMB _RB-05
CLB 0.05 MEMB _RB-06
CLB 0.05 MEMB _RB-07
CLT 0.05 MEMB _RB-01
CLT 0.05 MEMB _RB-02
CLT 0.05 MEMB _RB-03
CLT 0.05 MEMB _RB-04
CLT 0.05 MEMB _RB-05
CLT 0.05 MEMB _RB-06
CLT 0.05 MEMB _RB-07
CLS 0.05 MEMB _COLS
DESIGN BEAM _PB-01
DESIGN BEAM _PB-01A
DESIGN BEAM _PB-02
DESIGN BEAM _PB-02A
DESIGN BEAM _PB-03
DESIGN BEAM _PB-04
DESIGN BEAM _PB-05
DESIGN BEAM _GB-01
DESIGN BEAM _GB-02
DESIGN BEAM _GB-03
DESIGN BEAM _RB-01
DESIGN BEAM _RB-02
DESIGN BEAM _RB-03
DESIGN BEAM _RB-04
DESIGN BEAM _RB-05
DESIGN BEAM _RB-06
DESIGN BEAM _RB-07
DESIGN COLUMN _C1-400X500
DESIGN COLUMN _C2-400X800
DESIGN COLUMN _C3-300X300
END CONCRETE DESIGN
******************************************************************
PARAMETER 2
CODE AISC UNIFIED 2022
METHOD LRFD
BEAM 1 MEMB _SHED_BEAM
DFF 150 MEMB _SHED_BEAM
FLX 2 MEMB _SHED_BEAM
FYLD 250000 MEMB _SHED_COL
FYLD 250000 MEMB _SHED_BEAM
LZ 7 MEMB 976 977 982 983 986 987 990 991 994 995 998 999 1009 1010 -
1048 TO 1051 1053 TO 1062 1084 1327 TO 1333 1342 TO 1348 1356 TO 1362 1386 -
1387 TO 1388 1393 TO 1395 1397
TRACK 0 MEMB _SHED_BEAM
TRACK 0 MEMB _SHED_COL
CHECK CODE MEMB _SHED_COL
CHECK CODE MEMB _SHED_BEAM
******************************************************************
******************************************************************
PARAMETER 3
CODE AISI 2016
KY 0.5 MEMB _PURLIN
METHOD LRFD
NSF 0.9 MEMB _PURLIN
TRACK 0 MEMB _PURLIN
CHECK CODE MEMB _PURLIN
FINISH
